*heading
*preprint, echo=no, model=no, history=no, contact=no
*part, name=part-1
*node
      1,          15.,           0.,           0.
      2,          15.,           5.,           0.
      3,          15.,          10.,           0.
      4,          20.,          10.,           0.
      5,          20.,           0.,           0.
      6,           0.,           0.,           0.
      7,           5.,           5.,           0.
      8,           0.,           5.,           0.
      9,           0.,          20.,           0.
     10,           5.,          15.,           0.
     11,           5.,          20.,           0.
     12,          20.,          20.,           0.
     13,          20.,          15.,           0.
     14,          15.,          2.5,           0.
     15,          15.,          7.5,           0.
     16,         17.5,          10.,           0.
     17,          20.,          7.5,           0.
     18,          20.,           5.,           0.
     19,          20.,          2.5,           0.
     20,         17.5,           0.,           0.
** ... 187 like lines cut
*element, type=c3d8
 1,  20,  52,  14,   1,  89, 121,  83,  70
 2,  52,  53,   2,  14, 121, 122,  71,  83
 3,  53,  54,  15,   2, 122, 123,  84,  71
 4,  54,  16,   3,  15, 123,  85,  72,  84
 5,   5,  19,  52,  20,  74,  88, 121,  89
 6,  19,  18,  53,  52,  88,  87, 122, 121
 7,  18,  17,  54,  53,  87,  86, 123, 122
 8,  17,   4,  16,  54,  86,  73,  85, 123
 9,  29,  55,  14,   2,  98, 124,  83,  71
10,  55,  21,   1,  14, 124,  90,  70,  83
11,  28,  56,  55,  29,  97, 125, 124,  98
12,  56,  22,  21,  55, 125,  91,  90, 124
13,  27,  57,  56,  28,  96, 126, 125,  97
14,  57,  23,  22,  56, 126,  92,  91, 125
15,   7,  58,  57,  27,  76, 127, 126,  96
16,  58,  24,  23,  57, 127,  93,  92, 126
17,  30,  59,  58,   7,  99, 128, 127,  76
18,  59,  25,  24,  58, 128,  94,  93, 127
19,   8,  26,  59,  30,  77,  95, 128,  99
20,  26,   6,  25,  59,  95,  75,  94, 128
** ... 68 like lines cut
*nset, nset=set-1, generate
   1,  207,    1
*elset, elset=set-1, generate
  1,  88,   1
*solid section, elset=set-1, material=material-1
,
*end part
*assembly, name=assembly
*instance, name=part-1-1, part=part-1
*end instance
*nset, nset=set-1, instance=part-1-1
   3,   4,  16,  72,  73,  85, 141, 142, 154
*elset, elset=set-1, instance=part-1-1
  4,  8, 48, 52
*nset, nset=set-2, instance=part-1-1
  12,  13,  46,  81,  82, 115, 150, 151, 184
*elset, elset=set-2, instance=part-1-1
 43, 44, 87, 88
*end assembly
*material, name=material-1
*elastic
100., 0.2
*boundary
set-1, encastre
*step, name=step-1, nlgeom=no
*static, direct
0.05, 1., 
*boundary
set-2, 1, 1, -2.
*restart, write, frequency=0
*output, field, variable=preselect
*output, history, variable=preselect
*end step
